<?xml version="1.0" encoding="UTF-8"?>

<!-- generated on 2024-12-03 12:40:47 by Eclipse SUMO netconvert Version 1.20.0
<configuration xmlns:xsi="http://www.w3.org/2001/XMLSchema-instance" xsi:noNamespaceSchemaLocation="http://sumo.dlr.de/xsd/netconvertConfiguration.xsd">

    <input>
        <osm-files value="C:\Users\thota\Downloads\map.osm"/>
    </input>

    <output>
        <output-file value="C:\Users\thota\Downloads\map.net.xml"/>
    </output>

    <projection>
        <proj.utm value="true"/>
    </projection>

</configuration>
-->

<net version="1.20" junctionCornerDetail="5" limitTurnSpeed="5.50" xmlns:xsi="http://www.w3.org/2001/XMLSchema-instance" xsi:noNamespaceSchemaLocation="http://sumo.dlr.de/xsd/net_file.xsd">

    <location netOffset="-463067.77,-1823329.17" convBoundary="0.00,0.00,7062.41,3705.28" origBoundary="80.653943,16.491469,80.720097,16.524985" projParameter="+proj=utm +zone=44 +ellps=WGS84 +datum=WGS84 +units=m +no_defs"/>

    <type id="highway.residential" priority="3" numLanes="1" speed="13.89" disallow="tram rail_urban rail rail_electric rail_fast ship container cable_car subway aircraft wheelchair scooter drone" oneway="0"/>
    <type id="highway.secondary" priority="11" numLanes="1" speed="27.78" disallow="tram rail_urban rail rail_electric rail_fast ship container cable_car subway aircraft wheelchair scooter drone" oneway="0"/>
    <type id="highway.service" priority="1" numLanes="1" speed="5.56" allow="pedestrian delivery bicycle" oneway="0"/>
    <type id="highway.tertiary" priority="10" numLanes="1" speed="22.22" disallow="tram rail_urban rail rail_electric rail_fast ship container cable_car subway aircraft wheelchair scooter drone" oneway="0"/>
    <type id="highway.trunk" priority="13" numLanes="2" speed="27.78" disallow="pedestrian bicycle tram rail_urban rail rail_electric rail_fast ship container cable_car subway aircraft wheelchair scooter drone" oneway="0"/>

    <edge id=":11047652764_0" function="internal">
        <lane id=":11047652764_0_0" index="0" disallow="tram rail_urban rail rail_electric rail_fast ship container cable_car subway aircraft wheelchair scooter drone" speed="3.65" length="4.67" shape="1387.14,1648.83 1387.47,1647.42 1388.08,1646.77 1388.97,1646.87 1390.14,1647.72"/>
    </edge>
    <edge id=":11047668562_0" function="internal">
        <lane id=":11047668562_0_0" index="0" disallow="tram rail_urban rail rail_electric rail_fast ship container cable_car subway aircraft wheelchair scooter drone" speed="3.65" length="4.67" shape="1595.49,1746.36 1594.08,1746.06 1593.42,1745.46 1593.49,1744.57 1594.32,1743.38"/>
    </edge>
    <edge id=":11047668563_0" function="internal">
        <lane id=":11047668563_0_0" index="0" disallow="tram rail_urban rail rail_electric rail_fast ship container cable_car subway aircraft wheelchair scooter drone" speed="6.97" length="9.90" shape="1641.14,1734.76 1639.64,1732.53 1637.77,1731.26 1635.53,1730.93 1632.92,1731.56"/>
    </edge>
    <edge id=":11047668563_1" function="internal">
        <lane id=":11047668563_1_0" index="0" disallow="tram rail_urban rail rail_electric rail_fast ship container cable_car subway aircraft wheelchair scooter drone" speed="13.89" length="14.97" shape="1641.14,1734.76 1634.53,1721.33"/>
    </edge>
    <edge id=":11047668563_2" function="internal">
        <lane id=":11047668563_2_0" index="0" disallow="tram rail_urban rail rail_electric rail_fast ship container cable_car subway aircraft wheelchair scooter drone" speed="7.85" length="4.04" shape="1641.14,1734.76 1639.91,1730.92"/>
    </edge>
    <edge id=":11047668563_3" function="internal">
        <lane id=":11047668563_3_0" index="0" disallow="tram rail_urban rail rail_electric rail_fast ship container cable_car subway aircraft wheelchair scooter drone" speed="3.65" length="1.44" shape="1641.14,1734.76 1641.33,1733.33"/>
    </edge>
    <edge id=":11047668563_16" function="internal">
        <lane id=":11047668563_16_0" index="0" disallow="tram rail_urban rail rail_electric rail_fast ship container cable_car subway aircraft wheelchair scooter drone" speed="7.85" length="10.51" shape="1639.91,1730.92 1640.26,1727.70 1642.20,1725.11 1645.73,1723.15"/>
    </edge>
    <edge id=":11047668563_17" function="internal">
        <lane id=":11047668563_17_0" index="0" disallow="tram rail_urban rail rail_electric rail_fast ship container cable_car subway aircraft wheelchair scooter drone" speed="3.65" length="3.23" shape="1641.33,1733.33 1641.88,1732.62 1642.77,1732.63 1644.02,1733.36"/>
    </edge>
    <edge id=":11047668563_4" function="internal">
        <lane id=":11047668563_4_0" index="0" disallow="tram rail_urban rail rail_electric rail_fast ship container cable_car subway aircraft wheelchair scooter drone" speed="6.32" length="9.04" shape="1646.87,1726.14 1644.68,1727.36 1643.47,1728.97 1643.25,1730.97 1644.02,1733.36"/>
    </edge>
    <edge id=":11047668563_5" function="internal">
        <lane id=":11047668563_5_0" index="0" disallow="tram rail_urban rail rail_electric rail_fast ship container cable_car subway aircraft wheelchair scooter drone" speed="13.89" length="14.96" shape="1646.87,1726.14 1632.92,1731.56"/>
    </edge>
    <edge id=":11047668563_6" function="internal">
        <lane id=":11047668563_6_0" index="0" disallow="tram rail_urban rail rail_electric rail_fast ship container cable_car subway aircraft wheelchair scooter drone" speed="8.46" length="14.80" shape="1646.87,1726.14 1642.96,1727.04 1639.60,1726.53 1636.79,1724.63 1634.53,1721.33"/>
    </edge>
    <edge id=":11047668563_7" function="internal">
        <lane id=":11047668563_7_0" index="0" disallow="tram rail_urban rail rail_electric rail_fast ship container cable_car subway aircraft wheelchair scooter drone" speed="3.65" length="4.67" shape="1646.87,1726.14 1645.46,1725.82 1644.80,1725.21 1644.89,1724.32 1645.73,1723.15"/>
    </edge>
    <edge id=":11047668563_8" function="internal">
        <lane id=":11047668563_8_0" index="0" disallow="tram rail_urban rail rail_electric rail_fast ship container cable_car subway aircraft wheelchair scooter drone" speed="7.05" length="10.00" shape="1637.39,1719.91 1638.92,1722.13 1640.82,1723.42 1643.09,1723.76 1645.73,1723.15"/>
    </edge>
    <edge id=":11047668563_9" function="internal">
        <lane id=":11047668563_9_0" index="0" disallow="tram rail_urban rail rail_electric rail_fast ship container cable_car subway aircraft wheelchair scooter drone" speed="13.89" length="15.00" shape="1637.39,1719.91 1644.02,1733.36"/>
    </edge>
    <edge id=":11047668563_10" function="internal">
        <lane id=":11047668563_10_0" index="0" disallow="tram rail_urban rail rail_electric rail_fast ship container cable_car subway aircraft wheelchair scooter drone" speed="7.86" length="4.17" shape="1637.39,1719.91 1638.65,1723.73 1638.64,1723.87"/>
    </edge>
    <edge id=":11047668563_11" function="internal">
        <lane id=":11047668563_11_0" index="0" disallow="tram rail_urban rail rail_electric rail_fast ship container cable_car subway aircraft wheelchair scooter drone" speed="3.65" length="1.44" shape="1637.39,1719.91 1637.21,1721.34"/>
    </edge>
    <edge id=":11047668563_18" function="internal">
        <lane id=":11047668563_18_0" index="0" disallow="tram rail_urban rail rail_electric rail_fast ship container cable_car subway aircraft wheelchair scooter drone" speed="7.86" length="10.36" shape="1638.64,1723.87 1638.33,1726.95 1636.42,1729.56 1632.92,1731.56"/>
    </edge>
    <edge id=":11047668563_19" function="internal">
        <lane id=":11047668563_19_0" index="0" disallow="tram rail_urban rail rail_electric rail_fast ship container cable_car subway aircraft wheelchair scooter drone" speed="3.65" length="3.23" shape="1637.21,1721.34 1636.67,1722.05 1635.78,1722.05 1634.53,1721.33"/>
    </edge>
    <edge id=":11047668563_12" function="internal">
        <lane id=":11047668563_12_0" index="0" disallow="tram rail_urban rail rail_electric rail_fast ship container cable_car subway aircraft wheelchair scooter drone" speed="6.33" length="9.04" shape="1631.74,1728.58 1633.92,1727.34 1635.11,1725.71 1635.31,1723.71 1634.53,1721.33"/>
    </edge>
    <edge id=":11047668563_13" function="internal">
        <lane id=":11047668563_13_0" index="0" disallow="tram rail_urban rail rail_electric rail_fast ship container cable_car subway aircraft wheelchair scooter drone" speed="13.89" length="15.00" shape="1631.74,1728.58 1645.73,1723.15"/>
    </edge>
    <edge id=":11047668563_14" function="internal">
        <lane id=":11047668563_14_0" index="0" disallow="tram rail_urban rail rail_electric rail_fast ship container cable_car subway aircraft wheelchair scooter drone" speed="8.39" length="14.77" shape="1631.74,1728.58 1635.64,1727.65 1638.98,1728.13 1641.77,1730.03 1644.02,1733.36"/>
    </edge>
    <edge id=":11047668563_15" function="internal">
        <lane id=":11047668563_15_0" index="0" disallow="tram rail_urban rail rail_electric rail_fast ship container cable_car subway aircraft wheelchair scooter drone" speed="3.65" length="4.67" shape="1631.74,1728.58 1633.15,1728.89 1633.82,1729.48 1633.74,1730.37 1632.92,1731.56"/>
    </edge>
    <edge id=":11047668564_0" function="internal">
        <lane id=":11047668564_0_0" index="0" disallow="tram rail_urban rail rail_electric rail_fast ship container cable_car subway aircraft wheelchair scooter drone" speed="6.69" length="9.33" shape="1686.91,1716.99 1685.60,1714.80 1683.90,1713.53 1681.81,1713.18 1679.34,1713.73"/>
    </edge>
    <edge id=":11047668564_1" function="internal">
        <lane id=":11047668564_1_0" index="0" disallow="tram rail_urban rail rail_electric rail_fast ship container cable_car subway aircraft wheelchair scooter drone" speed="13.89" length="14.57" shape="1686.91,1716.99 1681.37,1703.51"/>
    </edge>
    <edge id=":11047668564_2" function="internal">
        <lane id=":11047668564_2_0" index="0" disallow="tram rail_urban rail rail_electric rail_fast ship container cable_car subway aircraft wheelchair scooter drone" speed="7.95" length="14.30" shape="1686.91,1716.99 1685.91,1713.19 1686.37,1710.01 1688.32,1707.45 1691.74,1705.51"/>
    </edge>
    <edge id=":11047668564_3" function="internal">
        <lane id=":11047668564_3_0" index="0" disallow="tram rail_urban rail rail_electric rail_fast ship container cable_car subway aircraft wheelchair scooter drone" speed="3.65" length="4.67" shape="1686.91,1716.99 1687.18,1715.57 1687.76,1714.89 1688.65,1714.95 1689.86,1715.74"/>
    </edge>
    <edge id=":11047668564_4" function="internal">
        <lane id=":11047668564_4_0" index="0" disallow="tram rail_urban rail rail_electric rail_fast ship container cable_car subway aircraft wheelchair scooter drone" speed="6.45" length="9.03" shape="1692.91,1708.49 1690.75,1709.71 1689.52,1711.33 1689.22,1713.34 1689.86,1715.74"/>
    </edge>
    <edge id=":11047668564_5" function="internal">
        <lane id=":11047668564_5_0" index="0" disallow="tram rail_urban rail rail_electric rail_fast ship container cable_car subway aircraft wheelchair scooter drone" speed="13.89" length="14.55" shape="1692.91,1708.49 1679.34,1713.73"/>
    </edge>
    <edge id=":11047668564_6" function="internal">
        <lane id=":11047668564_6_0" index="0" disallow="tram rail_urban rail rail_electric rail_fast ship container cable_car subway aircraft wheelchair scooter drone" speed="8.05" length="4.14" shape="1692.91,1708.49 1689.09,1709.39 1688.88,1709.36"/>
    </edge>
    <edge id=":11047668564_7" function="internal">
        <lane id=":11047668564_7_0" index="0" disallow="tram rail_urban rail rail_electric rail_fast ship container cable_car subway aircraft wheelchair scooter drone" speed="3.65" length="1.44" shape="1692.91,1708.49 1691.50,1708.18"/>
    </edge>
    <edge id=":11047668564_16" function="internal">
        <lane id=":11047668564_16_0" index="0" disallow="tram rail_urban rail rail_electric rail_fast ship container cable_car subway aircraft wheelchair scooter drone" speed="8.05" length="10.17" shape="1688.88,1709.36 1685.89,1708.86 1683.32,1706.90 1681.37,1703.51"/>
    </edge>
    <edge id=":11047668564_17" function="internal">
        <lane id=":11047668564_17_0" index="0" disallow="tram rail_urban rail rail_electric rail_fast ship container cable_car subway aircraft wheelchair scooter drone" speed="3.65" length="3.23" shape="1691.50,1708.18 1690.84,1707.58 1690.92,1706.69 1691.74,1705.51"/>
    </edge>
    <edge id=":11047668564_8" function="internal">
        <lane id=":11047668564_8_0" index="0" disallow="tram rail_urban rail rail_electric rail_fast ship container cable_car subway aircraft wheelchair scooter drone" speed="6.57" length="9.17" shape="1684.34,1702.33 1685.59,1704.50 1687.24,1705.75 1689.29,1706.09 1691.74,1705.51"/>
    </edge>
    <edge id=":11047668564_9" function="internal">
        <lane id=":11047668564_9_0" index="0" disallow="tram rail_urban rail rail_electric rail_fast ship container cable_car subway aircraft wheelchair scooter drone" speed="13.89" length="14.50" shape="1684.34,1702.33 1689.86,1715.74"/>
    </edge>
    <edge id=":11047668564_10" function="internal">
        <lane id=":11047668564_10_0" index="0" disallow="tram rail_urban rail rail_electric rail_fast ship container cable_car subway aircraft wheelchair scooter drone" speed="7.98" length="14.25" shape="1684.34,1702.33 1685.26,1706.13 1684.73,1709.30 1682.76,1711.84 1679.34,1713.73"/>
    </edge>
    <edge id=":11047668564_11" function="internal">
        <lane id=":11047668564_11_0" index="0" disallow="tram rail_urban rail rail_electric rail_fast ship container cable_car subway aircraft wheelchair scooter drone" speed="3.65" length="4.67" shape="1684.34,1702.33 1684.04,1703.74 1683.45,1704.41 1682.56,1704.33 1681.37,1703.51"/>
    </edge>
    <edge id=":11047668564_12" function="internal">
        <lane id=":11047668564_12_0" index="0" disallow="tram rail_urban rail rail_electric rail_fast ship container cable_car subway aircraft wheelchair scooter drone" speed="6.48" length="9.03" shape="1678.20,1710.75 1680.37,1709.54 1681.62,1707.93 1681.95,1705.93 1681.37,1703.51"/>
    </edge>
    <edge id=":11047668564_13" function="internal">
        <lane id=":11047668564_13_0" index="0" disallow="tram rail_urban rail rail_electric rail_fast ship container cable_car subway aircraft wheelchair scooter drone" speed="13.89" length="14.52" shape="1678.20,1710.75 1691.74,1705.51"/>
    </edge>
    <edge id=":11047668564_14" function="internal">
        <lane id=":11047668564_14_0" index="0" disallow="tram rail_urban rail rail_electric rail_fast ship container cable_car subway aircraft wheelchair scooter drone" speed="8.15" length="4.05" shape="1678.20,1710.75 1682.00,1709.88 1682.15,1709.91"/>
    </edge>
    <edge id=":11047668564_15" function="internal">
        <lane id=":11047668564_15_0" index="0" disallow="tram rail_urban rail rail_electric rail_fast ship container cable_car subway aircraft wheelchair scooter drone" speed="3.65" length="1.44" shape="1678.20,1710.75 1679.60,1711.06"/>
    </edge>
    <edge id=":11047668564_18" function="internal">
        <lane id=":11047668564_18_0" index="0" disallow="tram rail_urban rail rail_electric rail_fast ship container cable_car subway aircraft wheelchair scooter drone" speed="8.15" length="10.30" shape="1682.15,1709.91 1685.22,1710.43 1687.84,1712.38 1689.86,1715.74"/>
    </edge>
    <edge id=":11047668564_19" function="internal">
        <lane id=":11047668564_19_0" index="0" disallow="tram rail_urban rail rail_electric rail_fast ship container cable_car subway aircraft wheelchair scooter drone" speed="3.65" length="3.23" shape="1679.60,1711.06 1680.26,1711.67 1680.18,1712.56 1679.34,1713.73"/>
    </edge>
    <edge id=":11047668565_0" function="internal">
        <lane id=":11047668565_0_0" index="0" disallow="tram rail_urban rail rail_electric rail_fast ship container cable_car subway aircraft wheelchair scooter drone" speed="6.75" length="9.34" shape="1745.01,1694.00 1743.66,1691.95 1741.91,1690.79 1739.76,1690.52 1737.22,1691.14"/>
    </edge>
    <edge id=":11047668565_1" function="internal">
        <lane id=":11047668565_1_0" index="0" disallow="tram rail_urban rail rail_electric rail_fast ship container cable_car subway aircraft wheelchair scooter drone" speed="13.89" length="14.41" shape="1745.01,1694.00 1738.97,1680.91"/>
    </edge>
    <edge id=":11047668565_2" function="internal">
        <lane id=":11047668565_2_0" index="0" disallow="tram rail_urban rail rail_electric rail_fast ship container cable_car subway aircraft wheelchair scooter drone" speed="3.65" length="1.44" shape="1745.01,1694.00 1745.23,1692.58"/>
    </edge>
    <edge id=":11047668565_9" function="internal">
        <lane id=":11047668565_9_0" index="0" disallow="tram rail_urban rail rail_electric rail_fast ship container cable_car subway aircraft wheelchair scooter drone" speed="3.65" length="3.23" shape="1745.23,1692.58 1745.79,1691.88 1746.69,1691.91 1747.91,1692.66"/>
    </edge>
    <edge id=":11047668565_3" function="internal">
        <lane id=":11047668565_3_0" index="0" disallow="tram rail_urban rail rail_electric rail_fast ship container cable_car subway aircraft wheelchair scooter drone" speed="13.89" length="14.41" shape="1741.88,1679.57 1747.91,1692.66"/>
    </edge>
    <edge id=":11047668565_4" function="internal">
        <lane id=":11047668565_4_0" index="0" disallow="tram rail_urban rail rail_electric rail_fast ship container cable_car subway aircraft wheelchair scooter drone" speed="7.90" length="4.12" shape="1741.88,1679.57 1743.01,1683.39 1743.00,1683.52"/>
    </edge>
    <edge id=":11047668565_5" function="internal">
        <lane id=":11047668565_5_0" index="0" disallow="tram rail_urban rail rail_electric rail_fast ship container cable_car subway aircraft wheelchair scooter drone" speed="3.65" length="1.44" shape="1741.88,1679.57 1741.65,1681.00"/>
    </edge>
    <edge id=":11047668565_10" function="internal">
        <lane id=":11047668565_10_0" index="0" disallow="tram rail_urban rail rail_electric rail_fast ship container cable_car subway aircraft wheelchair scooter drone" speed="7.90" length="10.31" shape="1743.00,1683.52 1742.62,1686.60 1740.69,1689.18 1737.22,1691.14"/>
    </edge>
    <edge id=":11047668565_11" function="internal">
        <lane id=":11047668565_11_0" index="0" disallow="tram rail_urban rail rail_electric rail_fast ship container cable_car subway aircraft wheelchair scooter drone" speed="3.65" length="3.23" shape="1741.65,1681.00 1741.10,1681.70 1740.20,1681.67 1738.97,1680.91"/>
    </edge>
    <edge id=":11047668565_6" function="internal">
        <lane id=":11047668565_6_0" index="0" disallow="tram rail_urban rail rail_electric rail_fast ship container cable_car subway aircraft wheelchair scooter drone" speed="6.38" length="9.04" shape="1736.05,1688.17 1738.23,1686.93 1739.44,1685.31 1739.68,1683.31 1738.97,1680.91"/>
    </edge>
    <edge id=":11047668565_7" function="internal">
        <lane id=":11047668565_7_0" index="0" disallow="tram rail_urban rail rail_electric rail_fast ship container cable_car subway aircraft wheelchair scooter drone" speed="8.20" length="14.28" shape="1736.05,1688.17 1739.90,1687.23 1743.16,1687.67 1745.83,1689.48 1747.91,1692.66"/>
    </edge>
    <edge id=":11047668565_8" function="internal">
        <lane id=":11047668565_8_0" index="0" disallow="tram rail_urban rail rail_electric rail_fast ship container cable_car subway aircraft wheelchair scooter drone" speed="3.65" length="4.67" shape="1736.05,1688.17 1737.46,1688.47 1738.13,1689.07 1738.05,1689.96 1737.22,1691.14"/>
    </edge>
    <edge id=":11047672367_0" function="internal">
        <lane id=":11047672367_0_0" index="0" disallow="tram rail_urban rail rail_electric rail_fast ship container cable_car subway aircraft wheelchair scooter drone" speed="13.89" length="14.40" shape="1703.42,1915.57 1697.31,1902.53"/>
    </edge>
    <edge id=":11047672367_1" function="internal">
        <lane id=":11047672367_1_0" index="0" disallow="tram rail_urban rail rail_electric rail_fast ship container cable_car subway aircraft wheelchair scooter drone" speed="8.01" length="4.06" shape="1703.42,1915.57 1702.29,1911.86 1702.30,1911.68"/>
    </edge>
    <edge id=":11047672367_2" function="internal">
        <lane id=":11047672367_2_0" index="0" disallow="tram rail_urban rail rail_electric rail_fast ship container cable_car subway aircraft wheelchair scooter drone" speed="3.65" length="1.44" shape="1703.42,1915.57 1703.64,1914.15"/>
    </edge>
    <edge id=":11047672367_9" function="internal">
        <lane id=":11047672367_9_0" index="0" disallow="tram rail_urban rail rail_electric rail_fast ship container cable_car subway aircraft wheelchair scooter drone" speed="8.01" length="10.13" shape="1702.30,1911.68 1702.61,1908.66 1704.40,1906.00 1707.65,1903.85"/>
    </edge>
    <edge id=":11047672367_10" function="internal">
        <lane id=":11047672367_10_0" index="0" disallow="tram rail_urban rail rail_electric rail_fast ship container cable_car subway aircraft wheelchair scooter drone" speed="3.65" length="3.23" shape="1703.64,1914.15 1704.19,1913.44 1705.08,1913.47 1706.32,1914.21"/>
    </edge>
    <edge id=":11047672367_3" function="internal">
        <lane id=":11047672367_3_0" index="0" disallow="tram rail_urban rail rail_electric rail_fast ship container cable_car subway aircraft wheelchair scooter drone" speed="6.52" length="9.05" shape="1709.02,1906.75 1706.95,1908.11 1705.81,1909.81 1705.60,1911.85 1706.32,1914.21"/>
    </edge>
    <edge id=":11047672367_4" function="internal">
        <lane id=":11047672367_4_0" index="0" disallow="tram rail_urban rail rail_electric rail_fast ship container cable_car subway aircraft wheelchair scooter drone" speed="8.00" length="14.20" shape="1709.02,1906.75 1705.30,1907.90 1702.11,1907.58 1699.44,1905.79 1697.31,1902.53"/>
    </edge>
    <edge id=":11047672367_5" function="internal">
        <lane id=":11047672367_5_0" index="0" disallow="tram rail_urban rail rail_electric rail_fast ship container cable_car subway aircraft wheelchair scooter drone" speed="3.65" length="4.67" shape="1709.02,1906.75 1707.59,1906.54 1706.89,1905.98 1706.91,1905.09 1707.65,1903.85"/>
    </edge>
    <edge id=":11047672367_6" function="internal">
        <lane id=":11047672367_6_0" index="0" disallow="tram rail_urban rail rail_electric rail_fast ship container cable_car subway aircraft wheelchair scooter drone" speed="6.50" length="9.03" shape="1700.20,1901.18 1701.56,1903.25 1703.25,1904.38 1705.28,1904.59 1707.65,1903.85"/>
    </edge>
    <edge id=":11047672367_7" function="internal">
        <lane id=":11047672367_7_0" index="0" disallow="tram rail_urban rail rail_electric rail_fast ship container cable_car subway aircraft wheelchair scooter drone" speed="13.89" length="14.40" shape="1700.20,1901.18 1706.32,1914.21"/>
    </edge>
    <edge id=":11047672367_8" function="internal">
        <lane id=":11047672367_8_0" index="0" disallow="tram rail_urban rail rail_electric rail_fast ship container cable_car subway aircraft wheelchair scooter drone" speed="3.65" length="1.44" shape="1700.20,1901.18 1699.99,1902.60"/>
    </edge>
    <edge id=":11047672367_11" function="internal">
        <lane id=":11047672367_11_0" index="0" disallow="tram rail_urban rail rail_electric rail_fast ship container cable_car subway aircraft wheelchair scooter drone" speed="3.65" length="3.23" shape="1699.99,1902.60 1699.43,1903.30 1698.54,1903.28 1697.31,1902.53"/>
    </edge>
    <edge id=":11047673504_0" function="internal">
        <lane id=":11047673504_0_0" index="0" disallow="tram rail_urban rail rail_electric rail_fast ship container cable_car subway aircraft wheelchair scooter drone" speed="6.58" length="9.13" shape="1992.16,1210.60 1990.73,1208.59 1988.98,1207.51 1986.91,1207.35 1984.51,1208.14"/>
    </edge>
    <edge id=":11047673504_1" function="internal">
        <lane id=":11047673504_1_0" index="0" disallow="tram rail_urban rail rail_electric rail_fast ship container cable_car subway aircraft wheelchair scooter drone" speed="13.89" length="14.40" shape="1992.16,1210.60 1985.61,1197.78"/>
    </edge>
    <edge id=":11047673504_2" function="internal">
        <lane id=":11047673504_2_0" index="0" disallow="tram rail_urban rail rail_electric rail_fast ship container cable_car subway aircraft wheelchair scooter drone" speed="3.65" length="1.44" shape="1992.16,1210.60 1992.33,1209.17"/>
    </edge>
    <edge id=":11047673504_9" function="internal">
        <lane id=":11047673504_9_0" index="0" disallow="tram rail_urban rail rail_electric rail_fast ship container cable_car subway aircraft wheelchair scooter drone" speed="3.65" length="3.23" shape="1992.33,1209.17 1992.86,1208.45 1993.75,1208.44 1995.01,1209.14"/>
    </edge>
    <edge id=":11047673504_3" function="internal">
        <lane id=":11047673504_3_0" index="0" disallow="tram rail_urban rail rail_electric rail_fast ship container cable_car subway aircraft wheelchair scooter drone" speed="13.89" length="14.40" shape="1988.45,1196.32 1995.01,1209.14"/>
    </edge>
    <edge id=":11047673504_4" function="internal">
        <lane id=":11047673504_4_0" index="0" disallow="tram rail_urban rail rail_electric rail_fast ship container cable_car subway aircraft wheelchair scooter drone" speed="7.97" length="4.08" shape="1988.45,1196.32 1989.73,1200.03 1989.72,1200.19"/>
    </edge>
    <edge id=":11047673504_5" function="internal">
        <lane id=":11047673504_5_0" index="0" disallow="tram rail_urban rail rail_electric rail_fast ship container cable_car subway aircraft wheelchair scooter drone" speed="3.65" length="1.44" shape="1988.45,1196.32 1988.29,1197.75"/>
    </edge>
    <edge id=":11047673504_10" function="internal">
        <lane id=":11047673504_10_0" index="0" disallow="tram rail_urban rail rail_electric rail_fast ship container cable_car subway aircraft wheelchair scooter drone" speed="7.97" length="10.19" shape="1989.72,1200.19 1989.49,1203.24 1987.75,1205.94 1984.51,1208.14"/>
    </edge>
    <edge id=":11047673504_11" function="internal">
        <lane id=":11047673504_11_0" index="0" disallow="tram rail_urban rail rail_electric rail_fast ship container cable_car subway aircraft wheelchair scooter drone" speed="3.65" length="3.23" shape="1988.29,1197.75 1987.76,1198.47 1986.86,1198.48 1985.61,1197.78"/>
    </edge>
    <edge id=":11047673504_6" function="internal">
        <lane id=":11047673504_6_0" index="0" disallow="tram rail_urban rail rail_electric rail_fast ship container cable_car subway aircraft wheelchair scooter drone" speed="6.46" length="9.03" shape="1983.11,1205.26 1985.16,1203.87 1986.26,1202.16 1986.41,1200.13 1985.61,1197.78"/>
    </edge>
    <edge id=":11047673504_7" function="internal">
        <lane id=":11047673504_7_0" index="0" disallow="tram rail_urban rail rail_electric rail_fast ship container cable_car subway aircraft wheelchair scooter drone" speed="8.07" length="14.22" shape="1983.11,1205.26 1986.83,1204.05 1990.05,1204.30 1992.78,1205.99 1995.01,1209.14"/>
    </edge>
    <edge id=":11047673504_8" function="internal">
        <lane id=":11047673504_8_0" index="0" disallow="tram rail_urban rail rail_electric rail_fast ship container cable_car subway aircraft wheelchair scooter drone" speed="3.65" length="4.67" shape="1983.11,1205.26 1984.54,1205.45 1985.24,1206.00 1985.24,1206.89 1984.51,1208.14"/>
    </edge>
    <edge id=":11047677824_0" function="internal">
        <lane id=":11047677824_0_0" index="0" disallow="tram rail_urban rail rail_electric rail_fast ship container cable_car subway aircraft wheelchair scooter drone" speed="3.65" length="4.67" shape="1992.14,1483.68 1990.71,1483.52 1989.99,1482.99 1989.98,1482.10 1990.68,1480.84"/>
    </edge>
    <edge id=":11047677825_0" function="internal">
        <lane id=":11047677825_0_0" index="0" disallow="tram rail_urban rail rail_electric rail_fast ship container cable_car subway aircraft wheelchair scooter drone" speed="6.40" length="9.04" shape="2097.24,1435.98 2095.90,1433.87 2094.22,1432.74 2092.20,1432.58 2089.85,1433.40"/>
    </edge>
    <edge id=":11047677825_1" function="internal">
        <lane id=":11047677825_1_0" index="0" disallow="tram rail_urban rail rail_electric rail_fast ship container cable_car subway aircraft wheelchair scooter drone" speed="13.89" length="14.41" shape="2097.24,1435.98 2091.30,1422.85"/>
    </edge>
    <edge id=":11047677825_2" function="internal">
        <lane id=":11047677825_2_0" index="0" disallow="tram rail_urban rail rail_electric rail_fast ship container cable_car subway aircraft wheelchair scooter drone" speed="3.65" length="1.44" shape="2097.24,1435.98 2097.47,1434.55"/>
    </edge>
    <edge id=":11047677825_9" function="internal">
        <lane id=":11047677825_9_0" index="0" disallow="tram rail_urban rail rail_electric rail_fast ship container cable_car subway aircraft wheelchair scooter drone" speed="3.65" length="3.23" shape="2097.47,1434.55 2098.04,1433.86 2098.93,1433.89 2100.16,1434.66"/>
    </edge>
    <edge id=":11047677825_3" function="internal">
        <lane id=":11047677825_3_0" index="0" disallow="tram rail_urban rail rail_electric rail_fast ship container cable_car subway aircraft wheelchair scooter drone" speed="13.89" length="14.41" shape="2094.22,1421.53 2100.16,1434.66"/>
    </edge>
    <edge id=":11047677825_4" function="internal">